# ZnS variable cell
 ANIMSTEPS 2
 CRYSTAL
 PRIMVEC 1
    2.7100000    2.7100000    0.00000000
    2.7100000    0.0000000    2.71000000
    0.0000000    2.7100000    2.71000000
 CONVVEC 1
    5.4200000    0.0000000    0.00000000
    0.0000000    5.4200000    0.00000000
    0.0000000    0.0000000    5.42000000
 PRIMCOORD 1
    2 1
    16      0.0000000     0.0000000     0.00000000
    30      1.3550000    -1.3550000    -1.35500000
 PRIMVEC 2
    2.9810000    2.9810000    0.00000000
    2.9810000    0.0000000    2.98100000
    0.0000000    2.9810000    2.98100000
 CONVVEC 2
    5.9620000    0.0000000    0.00000000
    0.0000000    5.9620000    0.00000000
    0.0000000    0.0000000    5.96200000
 PRIMCOORD 2
    2 1
    16      0.0000000     0.0000000     0.00000000
    30      1.5905000    -1.5905000    -1.59050000
