# ZnS fixed cell
 ANIMSTEPS 2
 CRYSTAL
 PRIMVEC
    0.0000000    2.7100000    2.7100000    
    2.7100000    0.0000000    2.7100000
    2.7100000    2.7100000    0.0000000
 PRIMCOORD 1
    2 1                                           
    16      0.0000000     0.0000000     0.0000000 
    30      1.3550000    -1.3550000    -1.3550000
 PRIMCOORD 2
    2 1                                           
    16      0.0000000     0.0000000     0.0000000 
    30      1.2550000    -1.2550000    -1.2550000
